/*--------------------------------*- C++ -*----------------------------------*\
  =========                 |
  \\      /  F ield         | OpenFOAM: The Open Source CFD Toolbox
   \\    /   O peration     | Website:  https://openfoam.org
    \\  /    A nd           | Version:  11
     \\/     M anipulation  |
-------------------------------------------------------------------------------
Description
    Writes out iso-surface files with interpolated field data in VTK format.

\*---------------------------------------------------------------------------*/
FoamFile
{
    format      ascii;
    class       dictionary;
    location    "system";
    object      isoSurfaceDict;
}
// * * * * * * * * * * * * * * * * * * * * * * * * * * * * * * * * * * * * * //

type        isoSurface;
isoField    phi;
isoValue    0;
filter      full;
interpolate yes;

// ************************************************************************* //
